
_chemical_name_common	 'CrI3                                    ' 
_cell_length_a		 6.77405
_cell_length_b		 13.5481
_cell_length_c		 22.1214
_cell_angle_alpha		 90.0
_cell_angle_beta		 90.0
_cell_angle_gamma		 120.00044

loop_
_atom_site_label
_atom_site_fract_x
_atom_site_fract_y
_atom_site_fract_z
Cr1	   0.5866452244585209  0.3373245080737242  0.5001602705028996
Cr2	   0.5867601407795481  0.8372399647739324  0.4998917982863130
Cr3	   0.2533670315930934  0.0043277821493793  0.4996686266877639
Cr4	   0.2531614806427847  0.5041628577374115  0.4999736172372076
I1	   0.5647385751907796  0.1700786345518723  0.5689665386941882
I2	   0.5649165117369831  0.6701815997005325  0.5689637599609292
I3	   0.9195745047821227  0.4939613070172561  0.5687272268055210
I4	   0.9197931332024297  0.9938541586465781  0.5683478337553196
I5	   0.2743399147202856  0.3481493387123092  0.5689680505713743
I6	   0.2742473992663492  0.8482970135900025  0.5684613978675405
I7	   0.2733441703039228  0.1713035169959077  0.4312074179473938
I8	   0.2725925083652911  0.6709989116541862  0.4314069961240548
I9	   0.9202711264756046  0.3469764888936857  0.4315569938434049
I10	   0.9203510834258043  0.8476071937193753  0.4309335137297757
I11	   0.5671760225199424  0.4942162469776566  0.4314405004878639
I12	   0.5672811215325546  0.9942401310191824  0.4313254574984786

loop_
_atom_site_moment.label
_atom_site_moment.crystalaxis_x
_atom_site_moment.crystalaxis_y
_atom_site_moment.crystalaxis_z
Cr1	0.001	0.004	2.922
Cr2	0.000	0.001	2.922
Cr3	-0.004	0.000	2.919
Cr4	-0.002	0.002	2.921